  Page 1                                    Thu Feb 13 17:14:02 2025

  ******************************************************************
  *                           E P A N E T                          *
  *                   Hydraulic and Water Quality                  *
  *                   Analysis for Pipe Networks                   *
  *                         Version 2.00.12                        *
  ******************************************************************
  
  Montecarlo 
  Prueba para correr varias veces 
   
      Input Data File ................... armado.inp
      Number of Junctions................ 4
      Number of Reservoirs............... 0
      Number of Tanks ................... 1
      Number of Pipes ................... 6
      Number of Pumps ................... 0
      Number of Valves .................. 0
      Headloss Formula .................. Hazen-Williams
      Hydraulic Timestep ................ 1.00 hrs
      Hydraulic Accuracy ................ 0.001000
      Status Check Frequency ............ 2
      Maximum Trials Checked ............ 10
      Damping Limit Threshold ........... 0.000000
      Maximum Trials .................... 40
      Quality Analysis .................. None
      Specific Gravity .................. 1.00
      Relative Kinematic Viscosity ...... 1.00
      Relative Chemical Diffusivity ..... 1.00
      Demand Multiplier ................. 1.00
      Total Duration .................... 24.00 hrs
      Reporting Criteria:
         All Nodes
         No Links
   
  Analysis begun Thu Feb 13 17:14:02 2025

  WARNING: Negative pressures at 7:00:00 hrs.
  
  WARNING: Negative pressures at 8:00:00 hrs.
  
  WARNING: Negative pressures at 9:00:00 hrs.
  
  WARNING: Negative pressures at 10:00:00 hrs.
  
  WARNING: Negative pressures at 11:00:00 hrs.
  
  WARNING: Negative pressures at 12:00:00 hrs.
  
  WARNING: Negative pressures at 13:00:00 hrs.
  
   
  Node Results at 0:00:00 hrs:
  ----------------------------------------------
                     Demand      Head  Pressure
  Node                  L/s         m         m
  ----------------------------------------------
  B                    8.96   1242.89     32.89
  C                   15.79   1240.13     50.13
  D                   17.54   1240.96     45.96
  E                   10.73   1239.61     34.61
  A                  -53.02   1250.00     10.00  Tank
   
   
  Node Results at 1:00:00 hrs:
  ----------------------------------------------
                     Demand      Head  Pressure
  Node                  L/s         m         m
  ----------------------------------------------
  B                    9.46   1242.03     32.03
  C                   16.68   1238.98     48.98
  D                   18.54   1239.89     44.89
  E                   11.33   1238.39     33.39
  A                  -56.02   1249.90      9.90  Tank
   
   
  Node Results at 2:00:00 hrs:
  ----------------------------------------------
                     Demand      Head  Pressure
  Node                  L/s         m         m
  ----------------------------------------------
  B                    9.97   1241.13     31.13
  C                   17.58   1237.77     47.77
  D                   19.53   1238.77     43.77
  E                   11.94   1237.12     32.12
  A                  -59.02   1249.80      9.80  Tank
   
   
  Node Results at 3:00:00 hrs:
  ----------------------------------------------
                     Demand      Head  Pressure
  Node                  L/s         m         m
  ----------------------------------------------
  B                   10.48   1240.19     30.19
  C                   18.47   1236.50     46.50
  D                   20.52   1237.60     42.60
  E                   12.55   1235.79     30.79
  A                  -62.02   1249.69      9.69  Tank
   
   
  Node Results at 4:00:00 hrs:
  ----------------------------------------------
                     Demand      Head  Pressure
  Node                  L/s         m         m
  ----------------------------------------------
  B                   11.15   1238.91     28.91
  C                   19.66   1234.77     44.77
  D                   21.85   1236.01     41.01
  E                   13.36   1233.97     28.97
  A                  -66.02   1249.58      9.58  Tank
   
   
  Node Results at 5:00:00 hrs:
  ----------------------------------------------
                     Demand      Head  Pressure
  Node                  L/s         m         m
  ----------------------------------------------
  B                   12.51   1236.27     26.27
  C                   22.04   1231.15     41.15
  D                   24.49   1232.68     37.68
  E                   14.98   1230.17     25.17
  A                  -74.02   1249.46      9.46  Tank
   
   
  Node Results at 6:00:00 hrs:
  ----------------------------------------------
                     Demand      Head  Pressure
  Node                  L/s         m         m
  ----------------------------------------------
  B                   17.91   1223.66     13.66
  C                   31.58   1213.70     23.70
  D                   35.09   1216.69     21.69
  E                   21.45   1211.80      6.80
  A                 -106.03   1249.32      9.32  Tank
   
   
  Node Results at 7:00:00 hrs:
  ----------------------------------------------
                     Demand      Head  Pressure
  Node                  L/s         m         m
  ----------------------------------------------
  B                   23.32   1207.30     -2.70
  C                   41.11   1191.07      1.07
  D                   45.68   1195.93      0.93
  E                   27.93   1187.96    -17.04
  A                 -138.04   1249.13      9.13  Tank
   
   
  Node Results at 8:00:00 hrs:
  ----------------------------------------------
                     Demand      Head  Pressure
  Node                  L/s         m         m
  ----------------------------------------------
  B                   25.86   1198.24    -11.76
  C                   45.58   1178.59    -11.41
  D                   50.64   1184.47    -10.53
  E                   30.97   1174.83    -30.17
  A                 -153.05   1248.87      8.87  Tank
   
   
  Node Results at 9:00:00 hrs:
  ----------------------------------------------
                     Demand      Head  Pressure
  Node                  L/s         m         m
  ----------------------------------------------
  B                   28.39   1188.39    -21.61
  C                   50.05   1165.02    -24.98
  D                   55.61   1172.02    -22.98
  E                   34.00   1160.55    -44.45
  A                 -168.05   1248.59      8.59  Tank
   
   
  Node Results at 10:00:00 hrs:
  ----------------------------------------------
                     Demand      Head  Pressure
  Node                  L/s         m         m
  ----------------------------------------------
  B                   25.01   1200.68     -9.32
  C                   44.09   1182.20     -7.80
  D                   48.99   1187.73     -7.27
  E                   29.96   1178.66    -26.34
  A                 -148.04   1248.29      8.29  Tank
   
   
  Node Results at 11:00:00 hrs:
  ----------------------------------------------
                     Demand      Head  Pressure
  Node                  L/s         m         m
  ----------------------------------------------
  B                   21.80   1211.10      1.10
  C                   38.43   1196.77      6.77
  D                   42.70   1201.06      6.06
  E                   26.11   1194.03    -10.97
  A                 -129.04   1248.01      8.01  Tank
   
   
  Node Results at 12:00:00 hrs:
  ----------------------------------------------
                     Demand      Head  Pressure
  Node                  L/s         m         m
  ----------------------------------------------
  B                   20.45   1214.99      4.99
  C                   36.05   1202.27     12.27
  D                   40.05   1206.08     11.08
  E                   24.49   1199.83     -5.17
  A                 -121.04   1247.78      7.78  Tank
   
   
  Node Results at 13:00:00 hrs:
  ----------------------------------------------
                     Demand      Head  Pressure
  Node                  L/s         m         m
  ----------------------------------------------
  B                   19.27   1218.20      8.20
  C                   33.96   1206.80     16.80
  D                   37.73   1210.21     15.21
  E                   23.07   1204.62     -0.38
  A                 -114.03   1247.56      7.56  Tank
   
   
  Node Results at 14:00:00 hrs:
  ----------------------------------------------
                     Demand      Head  Pressure
  Node                  L/s         m         m
  ----------------------------------------------
  B                   18.76   1219.40      9.40
  C                   33.07   1208.55     18.55
  D                   36.74   1211.80     16.80
  E                   22.47   1206.48      1.48
  A                 -111.03   1247.35      7.35  Tank
   
   
  Node Results at 15:00:00 hrs:
  ----------------------------------------------
                     Demand      Head  Pressure
  Node                  L/s         m         m
  ----------------------------------------------
  B                   18.42   1220.12     10.12
  C                   32.47   1209.64     19.64
  D                   36.08   1212.78     17.78
  E                   22.06   1207.63      2.63
  A                 -109.03   1247.14      7.14  Tank
   
   
  Node Results at 16:00:00 hrs:
  ----------------------------------------------
                     Demand      Head  Pressure
  Node                  L/s         m         m
  ----------------------------------------------
  B                   18.08   1220.83     10.83
  C                   31.88   1210.70     20.70
  D                   35.42   1213.73     18.73
  E                   21.66   1208.76      3.76
  A                 -107.03   1246.94      6.94  Tank
   
   
  Node Results at 17:00:00 hrs:
  ----------------------------------------------
                     Demand      Head  Pressure
  Node                  L/s         m         m
  ----------------------------------------------
  B                   17.58   1221.98     11.98
  C                   30.98   1212.36     22.36
  D                   34.42   1215.24     20.24
  E                   21.05   1210.52      5.52
  A                 -104.03   1246.75      6.75  Tank
   
   
  Node Results at 18:00:00 hrs:
  ----------------------------------------------
                     Demand      Head  Pressure
  Node                  L/s         m         m
  ----------------------------------------------
  B                   17.07   1223.09     13.09
  C                   30.09   1213.99     23.99
  D                   33.43   1216.71     21.71
  E                   20.44   1212.24      7.24
  A                 -101.03   1246.56      6.56  Tank
   
   
  Node Results at 19:00:00 hrs:
  ----------------------------------------------
                     Demand      Head  Pressure
  Node                  L/s         m         m
  ----------------------------------------------
  B                   16.73   1223.76     13.76
  C                   29.49   1214.99     24.99
  D                   32.77   1217.61     22.61
  E                   20.04   1213.31      8.31
  A                  -99.03   1246.37      6.37  Tank
   
   
  Node Results at 20:00:00 hrs:
  ----------------------------------------------
                     Demand      Head  Pressure
  Node                  L/s         m         m
  ----------------------------------------------
  B                   15.89   1225.65     15.65
  C                   28.00   1217.68     27.68
  D                   31.11   1220.06     25.06
  E                   19.03   1216.15     11.15
  A                  -94.03   1246.19      6.19  Tank
   
   
  Node Results at 21:00:00 hrs:
  ----------------------------------------------
                     Demand      Head  Pressure
  Node                  L/s         m         m
  ----------------------------------------------
  B                   15.04   1227.45     17.45
  C                   26.51   1220.25     30.25
  D                   29.46   1222.41     27.41
  E                   18.01   1218.87     13.87
  A                  -89.03   1246.02      6.02  Tank
   
   
  Node Results at 22:00:00 hrs:
  ----------------------------------------------
                     Demand      Head  Pressure
  Node                  L/s         m         m
  ----------------------------------------------
  B                   12.84   1232.00     22.00
  C                   22.64   1226.62     36.62
  D                   25.16   1228.23     33.23
  E                   15.38   1225.59     20.59
  A                  -76.02   1245.85      5.85  Tank
   
   
  Node Results at 23:00:00 hrs:
  ----------------------------------------------
                     Demand      Head  Pressure
  Node                  L/s         m         m
  ----------------------------------------------
  B                   10.65   1235.92     25.92
  C                   18.77   1232.12     42.13
  D                   20.85   1233.26     38.26
  E                   12.75   1231.40     26.40
  A                  -63.02   1245.71      5.71  Tank
   
   
  Node Results at 24:00:00 hrs:
  ----------------------------------------------
                     Demand      Head  Pressure
  Node                  L/s         m         m
  ----------------------------------------------
  B                    8.96   1238.49     28.49
  C                   15.79   1235.73     45.73
  D                   17.54   1236.56     41.56
  E                   10.73   1235.20     30.20
  A                  -53.02   1245.60      5.60  Tank
   
  Analysis ended Thu Feb 13 17:14:02 2025
