  Página 1                                  Miercoles, 12 de Febrero de 2025 14:44
  ***************************************************************
  *                        E P A N E T                          *
  *                Análisis Hidráulico y de Calidad             *
  *                 de Redes Hidráulicas a Presión              *
  *                       Versión 2.00.12 vE                    *
  *                                                             *
  *                       Traducido por:                        *
  *             Universidad Politécnica de Valencia             *
  *                  http://www.epanet.upv.es                   *
  ***************************************************************
  
  El análisis comenzó en Miercoles, 12 de Febrero de 2025 14:44
  ADVERTENCIA: Presiones negativas a las 6:00:00 hrs.
  
  ADVERTENCIA: Presiones negativas a las 7:00:00 hrs.
  
  ADVERTENCIA: Presiones negativas a las 8:00:00 hrs.
  
  ADVERTENCIA: Presiones negativas a las 9:00:00 hrs.
  
  ADVERTENCIA: Presiones negativas a las 10:00:00 hrs.
  
  ADVERTENCIA: Presiones negativas a las 11:00:00 hrs.
  
  ADVERTENCIA: Presiones negativas a las 12:00:00 hrs.
  
  ADVERTENCIA: Presiones negativas a las 13:00:00 hrs.
  
  ADVERTENCIA: Presiones negativas a las 14:00:00 hrs.
  
  ADVERTENCIA: Presiones negativas a las 15:00:00 hrs.
  
  ADVERTENCIA: Presiones negativas a las 16:00:00 hrs.
  
  ADVERTENCIA: Presiones negativas a las 17:00:00 hrs.
  
  ADVERTENCIA: Presiones negativas a las 18:00:00 hrs.
  
   
  Resultados de Nudo en el instante 0:00:00 hrs:
  ----------------------------------------------
                    Demanda    Altura   Presión
  Nudo                  L/s         m         m
  ----------------------------------------------
  B                    8.96   1241.75     31.75
  C                   17.54   1238.29     48.29
  D                   17.54   1239.52     44.52
  E                   13.41   1237.49     32.49
  A                  -57.45   1250.00     10.00  Depósito
   
   
  Resultados de Línea en el instante 0:00:00 hrs:
  ----------------------------------------------
                     Caudal Velocidad  Pérdidas
  Línea                 L/s       m/s    /1000m
  ----------------------------------------------
  1                   57.45      1.15      4.12
  2                   20.14      0.63      1.73
  3                   28.36      0.57      1.12
  4                    7.35      0.23      0.27
  5                    6.06      0.32      0.68
  6                   -4.75      0.25      0.43
   
   
  Resultados de Nudo en el instante 1:00:00 hrs:
  ----------------------------------------------
                    Demanda    Altura   Presión
  Nudo                  L/s         m         m
  ----------------------------------------------
  B                    9.46   1240.76     30.76
  C                   18.54   1236.93     46.93
  D                   18.54   1238.29     43.29
  E                   14.17   1236.04     31.04
  A                  -60.70   1249.89      9.89  Depósito
   
   
  Resultados de Línea en el instante 1:00:00 hrs:
  ----------------------------------------------
                     Caudal Velocidad  Pérdidas
  Línea                 L/s       m/s    /1000m
  ----------------------------------------------
  1                   60.70      1.22      4.57
  2                   21.28      0.66      1.92
  3                   29.96      0.60      1.24
  4                    7.76      0.24      0.30
  5                    6.41      0.34      0.75
  6                   -5.02      0.27      0.48
   
   
  Resultados de Nudo en el instante 2:00:00 hrs:
  ----------------------------------------------
                    Demanda    Altura   Presión
  Nudo                  L/s         m         m
  ----------------------------------------------
  B                    9.97   1239.72     29.72
  C                   19.53   1235.50     45.50
  D                   19.53   1237.00     42.00
  E                   14.93   1234.52     29.52
  A                  -63.96   1249.78      9.78  Depósito
   
   
  Resultados de Línea en el instante 2:00:00 hrs:
  ----------------------------------------------
                     Caudal Velocidad  Pérdidas
  Línea                 L/s       m/s    /1000m
  ----------------------------------------------
  1                   63.96      1.28      5.03
  2                   22.42      0.70      2.11
  3                   31.57      0.63      1.36
  4                    8.18      0.25      0.33
  5                    6.75      0.36      0.83
  6                   -5.29      0.28      0.53
   
   
  Resultados de Nudo en el instante 3:00:00 hrs:
  ----------------------------------------------
                    Demanda    Altura   Presión
  Nudo                  L/s         m         m
  ----------------------------------------------
  B                   10.48   1238.64     28.64
  C                   20.52   1234.01     44.01
  D                   20.52   1235.65     40.65
  E                   15.69   1232.94     27.94
  A                  -67.21   1249.67      9.67  Depósito
   
   
  Resultados de Línea en el instante 3:00:00 hrs:
  ----------------------------------------------
                     Caudal Velocidad  Pérdidas
  Línea                 L/s       m/s    /1000m
  ----------------------------------------------
  1                   67.21      1.35      5.51
  2                   23.56      0.73      2.31
  3                   33.17      0.66      1.49
  4                    8.59      0.27      0.36
  5                    7.09      0.37      0.91
  6                   -5.56      0.29      0.58
   
   
  Resultados de Nudo en el instante 4:00:00 hrs:
  ----------------------------------------------
                    Demanda    Altura   Presión
  Nudo                  L/s         m         m
  ----------------------------------------------
  B                   11.15   1237.16     27.16
  C                   21.85   1231.96     41.96
  D                   21.85   1233.81     38.81
  E                   16.70   1230.76     25.76
  A                  -71.54   1249.54      9.54  Depósito
   
   
  Resultados de Línea en el instante 4:00:00 hrs:
  ----------------------------------------------
                     Caudal Velocidad  Pérdidas
  Línea                 L/s       m/s    /1000m
  ----------------------------------------------
  1                   71.54      1.43      6.19
  2                   25.08      0.78      2.60
  3                   35.31      0.71      1.67
  4                    9.15      0.28      0.40
  5                    7.55      0.40      1.02
  6                   -5.92      0.31      0.65
   
   
  Resultados de Nudo en el instante 5:00:00 hrs:
  ----------------------------------------------
                    Demanda    Altura   Presión
  Nudo                  L/s         m         m
  ----------------------------------------------
  B                   12.51   1234.11     24.11
  C                   24.49   1227.68     37.68
  D                   24.49   1229.97     34.97
  E                   18.72   1226.20     21.20
  A                  -80.22   1249.41      9.41  Depósito
   
   
  Resultados de Línea en el instante 5:00:00 hrs:
  ----------------------------------------------
                     Caudal Velocidad  Pérdidas
  Línea                 L/s       m/s    /1000m
  ----------------------------------------------
  1                   80.22      1.61      7.65
  2                   28.11      0.88      3.21
  3                   39.60      0.79      2.07
  4                   10.26      0.32      0.50
  5                    8.46      0.45      1.26
  6                   -6.64      0.35      0.80
   
   
  Resultados de Nudo en el instante 6:00:00 hrs:
  ----------------------------------------------
                    Demanda    Altura   Presión
  Nudo                  L/s         m         m
  ----------------------------------------------
  B                   17.91   1219.49      9.49
  C                   35.09   1206.99     16.99
  D                   35.09   1211.43     16.43
  E                   26.82   1204.10     -0.90
  A                 -114.90   1249.26      9.26  Depósito
   
   
  Resultados de Línea en el instante 6:00:00 hrs:
  ----------------------------------------------
                     Caudal Velocidad  Pérdidas
  Línea                 L/s       m/s    /1000m
  ----------------------------------------------
  1                  114.90      2.30     14.89
  2                   40.27      1.25      6.25
  3                   56.72      1.14      4.03
  4                   14.69      0.46      0.97
  5                   12.13      0.64      2.45
  6                   -9.51      0.50      1.56
   
   
  Resultados de Nudo en el instante 7:00:00 hrs:
  ----------------------------------------------
                    Demanda    Altura   Presión
  Nudo                  L/s         m         m
  ----------------------------------------------
  B                   23.32   1200.52     -9.48
  C                   45.68   1180.15     -9.85
  D                   45.68   1187.39     -7.61
  E                   34.91   1175.43    -29.57
  A                 -149.59   1249.05      9.05  Depósito
   
   
  Resultados de Línea en el instante 7:00:00 hrs:
  ----------------------------------------------
                     Caudal Velocidad  Pérdidas
  Línea                 L/s       m/s    /1000m
  ----------------------------------------------
  1                  149.59      3.00     24.27
  2                   52.43      1.63     10.18
  3                   73.84      1.48      6.56
  4                   19.13      0.60      1.57
  5                   15.79      0.83      3.99
  6                  -12.38      0.65      2.54
   
   
  Resultados de Nudo en el instante 8:00:00 hrs:
  ----------------------------------------------
                    Demanda    Altura   Presión
  Nudo                  L/s         m         m
  ----------------------------------------------
  B                   25.86   1190.02    -19.98
  C                   50.64   1165.37    -24.63
  D                   50.64   1174.13    -20.87
  E                   38.71   1159.65    -45.35
  A                 -165.85   1248.78      8.78  Depósito
   
   
  Resultados de Línea en el instante 8:00:00 hrs:
  ----------------------------------------------
                     Caudal Velocidad  Pérdidas
  Línea                 L/s       m/s    /1000m
  ----------------------------------------------
  1                  165.85      3.32     29.38
  2                   58.13      1.81     12.33
  3                   81.87      1.64      7.95
  4                   21.21      0.66      1.90
  5                   17.50      0.92      4.83
  6                  -13.72      0.72      3.08
   
   
  Resultados de Nudo en el instante 9:00:00 hrs:
  ----------------------------------------------
                    Demanda    Altura   Presión
  Nudo                  L/s         m         m
  ----------------------------------------------
  B                   28.39   1178.61    -31.39
  C                   55.61   1149.29    -40.71
  D                   55.61   1159.71    -35.29
  E                   42.50   1142.49    -62.51
  A                 -182.11   1248.48      8.48  Depósito
   
   
  Resultados de Línea en el instante 9:00:00 hrs:
  ----------------------------------------------
                     Caudal Velocidad  Pérdidas
  Línea                 L/s       m/s    /1000m
  ----------------------------------------------
  1                  182.11      3.65     34.93
  2                   63.83      1.99     14.66
  3                   89.89      1.80      9.45
  4                   23.29      0.73      2.27
  5                   19.22      1.01      5.74
  6                  -15.07      0.80      3.66
   
   
  Resultados de Nudo en el instante 10:00:00 hrs:
  ----------------------------------------------
                    Demanda    Altura   Presión
  Nudo                  L/s         m         m
  ----------------------------------------------
  B                   25.01   1192.89    -17.11
  C                   48.99   1169.71    -20.29
  D                   48.99   1177.95    -17.05
  E                   37.44   1164.33    -40.67
  A                 -160.43   1248.14      8.14  Depósito
   
   
  Resultados de Línea en el instante 10:00:00 hrs:
  ----------------------------------------------
                     Caudal Velocidad  Pérdidas
  Línea                 L/s       m/s    /1000m
  ----------------------------------------------
  1                  160.43      3.21     27.62
  2                   56.23      1.75     11.59
  3                   79.19      1.59      7.47
  4                   20.51      0.64      1.79
  5                   16.93      0.89      4.54
  6                  -13.27      0.70      2.89
   
   
  Resultados de Nudo en el instante 11:00:00 hrs:
  ----------------------------------------------
                    Demanda    Altura   Presión
  Nudo                  L/s         m         m
  ----------------------------------------------
  B                   21.80   1205.01     -4.99
  C                   42.70   1187.03     -2.97
  D                   42.70   1193.42     -1.58
  E                   32.64   1182.87    -22.13
  A                 -139.84   1247.85      7.85  Depósito
   
   
  Resultados de Línea en el instante 11:00:00 hrs:
  ----------------------------------------------
                     Caudal Velocidad  Pérdidas
  Línea                 L/s       m/s    /1000m
  ----------------------------------------------
  1                  139.84      2.80     21.42
  2                   49.01      1.53      8.99
  3                   69.02      1.38      5.79
  4                   17.88      0.56      1.39
  5                   14.76      0.78      3.52
  6                  -11.57      0.61      2.24
   
   
  Resultados de Nudo en el instante 12:00:00 hrs:
  ----------------------------------------------
                    Demanda    Altura   Presión
  Nudo                  L/s         m         m
  ----------------------------------------------
  B                   20.45   1209.54     -0.46
  C                   40.05   1193.58      3.58
  D                   40.05   1199.25      4.25
  E                   30.61   1189.88    -15.12
  A                 -131.16   1247.59      7.59  Depósito
   
   
  Resultados de Línea en el instante 12:00:00 hrs:
  ----------------------------------------------
                     Caudal Velocidad  Pérdidas
  Línea                 L/s       m/s    /1000m
  ----------------------------------------------
  1                  131.16      2.63     19.02
  2                   45.97      1.43      7.98
  3                   64.74      1.30      5.15
  4                   16.77      0.52      1.23
  5                   13.84      0.73      3.13
  6                  -10.85      0.57      1.99
   
   
  Resultados de Nudo en el instante 13:00:00 hrs:
  ----------------------------------------------
                    Demanda    Altura   Presión
  Nudo                  L/s         m         m
  ----------------------------------------------
  B                   19.27   1213.28      3.28
  C                   37.73   1198.98      8.98
  D                   37.73   1204.06      9.06
  E                   28.84   1195.67     -9.33
  A                 -123.58   1247.35      7.35  Depósito
   
   
  Resultados de Línea en el instante 13:00:00 hrs:
  ----------------------------------------------
                     Caudal Velocidad  Pérdidas
  Línea                 L/s       m/s    /1000m
  ----------------------------------------------
  1                  123.58      2.48     17.04
  2                   43.31      1.35      7.15
  3                   61.00      1.22      4.61
  4                   15.80      0.49      1.10
  5                   13.04      0.69      2.80
  6                  -10.22      0.54      1.78
   
   
  Resultados de Nudo en el instante 14:00:00 hrs:
  ----------------------------------------------
                    Demanda    Altura   Presión
  Nudo                  L/s         m         m
  ----------------------------------------------
  B                   18.76   1214.69      4.69
  C                   36.74   1201.09     11.09
  D                   36.74   1205.92     10.92
  E                   28.08   1197.93     -7.07
  A                 -120.32   1247.12      7.12  Depósito
   
   
  Resultados de Línea en el instante 14:00:00 hrs:
  ----------------------------------------------
                     Caudal Velocidad  Pérdidas
  Línea                 L/s       m/s    /1000m
  ----------------------------------------------
  1                  120.32      2.41     16.21
  2                   42.17      1.31      6.80
  3                   59.39      1.19      4.39
  4                   15.39      0.48      1.05
  5                   12.70      0.67      2.66
  6                   -9.95      0.53      1.70
   
   
  Resultados de Nudo en el instante 15:00:00 hrs:
  ----------------------------------------------
                    Demanda    Altura   Presión
  Nudo                  L/s         m         m
  ----------------------------------------------
  B                   18.42   1215.55      5.55
  C                   36.08   1202.39     12.39
  D                   36.08   1207.07     12.07
  E                   27.58   1199.34     -5.66
  A                 -118.16   1246.90      6.90  Depósito
   
   
  Resultados de Línea en el instante 15:00:00 hrs:
  ----------------------------------------------
                     Caudal Velocidad  Pérdidas
  Línea                 L/s       m/s    /1000m
  ----------------------------------------------
  1                  118.16      2.37     15.68
  2                   41.41      1.29      6.58
  3                   58.32      1.17      4.24
  4                   15.11      0.47      1.02
  5                   12.47      0.66      2.58
  6                   -9.77      0.52      1.64
   
   
  Resultados de Nudo en el instante 16:00:00 hrs:
  ----------------------------------------------
                    Demanda    Altura   Presión
  Nudo                  L/s         m         m
  ----------------------------------------------
  B                   18.08   1216.39      6.39
  C                   35.42   1203.67     13.67
  D                   35.42   1208.19     13.19
  E                   27.07   1200.73     -4.27
  A                 -115.99   1246.69      6.69  Depósito
   
   
  Resultados de Línea en el instante 16:00:00 hrs:
  ----------------------------------------------
                     Caudal Velocidad  Pérdidas
  Línea                 L/s       m/s    /1000m
  ----------------------------------------------
  1                  115.99      2.32     15.15
  2                   40.65      1.27      6.36
  3                   57.25      1.15      4.10
  4                   14.83      0.46      0.98
  5                   12.24      0.65      2.49
  6                   -9.60      0.51      1.59
   
   
  Resultados de Nudo en el instante 17:00:00 hrs:
  ----------------------------------------------
                    Demanda    Altura   Presión
  Nudo                  L/s         m         m
  ----------------------------------------------
  B                   17.58   1217.73      7.73
  C                   34.42   1205.67     15.67
  D                   34.42   1209.96     14.96
  E                   26.31   1202.87     -2.13
  A                 -112.74   1246.47      6.47  Depósito
   
   
  Resultados de Línea en el instante 17:00:00 hrs:
  ----------------------------------------------
                     Caudal Velocidad  Pérdidas
  Línea                 L/s       m/s    /1000m
  ----------------------------------------------
  1                  112.74      2.26     14.37
  2                   39.51      1.23      6.03
  3                   55.65      1.12      3.89
  4                   14.42      0.45      0.93
  5                   11.90      0.63      2.36
  6                   -9.33      0.49      1.50
   
   
  Resultados de Nudo en el instante 18:00:00 hrs:
  ----------------------------------------------
                    Demanda    Altura   Presión
  Nudo                  L/s         m         m
  ----------------------------------------------
  B                   17.07   1219.04      9.04
  C                   33.43   1207.61     17.61
  D                   33.43   1211.68     16.68
  E                   25.55   1204.97     -0.03
  A                 -109.48   1246.27      6.27  Depósito
   
   
  Resultados de Línea en el instante 18:00:00 hrs:
  ----------------------------------------------
                     Caudal Velocidad  Pérdidas
  Línea                 L/s       m/s    /1000m
  ----------------------------------------------
  1                  109.48      2.19     13.61
  2                   38.37      1.19      5.71
  3                   54.04      1.08      3.68
  4                   14.00      0.44      0.88
  5                   11.55      0.61      2.24
  6                   -9.06      0.48      1.43
   
   
  Resultados de Nudo en el instante 19:00:00 hrs:
  ----------------------------------------------
                    Demanda    Altura   Presión
  Nudo                  L/s         m         m
  ----------------------------------------------
  B                   16.73   1219.83      9.83
  C                   32.77   1208.82     18.82
  D                   32.77   1212.73     17.73
  E                   25.05   1206.27      1.27
  A                 -107.32   1246.07      6.07  Depósito
   
   
  Resultados de Línea en el instante 19:00:00 hrs:
  ----------------------------------------------
                     Caudal Velocidad  Pérdidas
  Línea                 L/s       m/s    /1000m
  ----------------------------------------------
  1                  107.32      2.15     13.12
  2                   37.61      1.17      5.51
  3                   52.97      1.06      3.55
  4                   13.72      0.43      0.85
  5                   11.32      0.60      2.16
  6                   -8.88      0.47      1.37
   
   
  Resultados de Nudo en el instante 20:00:00 hrs:
  ----------------------------------------------
                    Demanda    Altura   Presión
  Nudo                  L/s         m         m
  ----------------------------------------------
  B                   15.89   1222.03     12.03
  C                   31.11   1212.03     22.03
  D                   31.11   1215.59     20.59
  E                   23.78   1209.71      4.71
  A                 -101.90   1245.87      5.87  Depósito
   
   
  Resultados de Línea en el instante 20:00:00 hrs:
  ----------------------------------------------
                     Caudal Velocidad  Pérdidas
  Línea                 L/s       m/s    /1000m
  ----------------------------------------------
  1                  101.90      2.04     11.92
  2                   35.71      1.11      5.00
  3                   50.30      1.01      3.22
  4                   13.03      0.41      0.77
  5                   10.75      0.57      1.96
  6                   -8.43      0.44      1.25
   
   
  Resultados de Nudo en el instante 21:00:00 hrs:
  ----------------------------------------------
                    Demanda    Altura   Presión
  Nudo                  L/s         m         m
  ----------------------------------------------
  B                   15.04   1224.14     14.14
  C                   29.46   1215.10     25.10
  D                   29.46   1218.32     23.32
  E                   22.52   1213.01      8.01
  A                  -96.48   1245.68      5.68  Depósito
   
   
  Resultados de Línea en el instante 21:00:00 hrs:
  ----------------------------------------------
                     Caudal Velocidad  Pérdidas
  Línea                 L/s       m/s    /1000m
  ----------------------------------------------
  1                   96.48      1.93     10.77
  2                   33.81      1.05      4.52
  3                   47.62      0.95      2.91
  4                   12.34      0.38      0.70
  5                   10.18      0.54      1.77
  6                   -7.98      0.42      1.13
   
   
  Resultados de Nudo en el instante 22:00:00 hrs:
  ----------------------------------------------
                    Demanda    Altura   Presión
  Nudo                  L/s         m         m
  ----------------------------------------------
  B                   12.84   1229.43     19.43
  C                   25.16   1222.68     32.68
  D                   25.16   1225.08     30.08
  E                   19.23   1221.12     16.12
  A                  -82.38   1245.51      5.51  Depósito
   
   
  Resultados de Línea en el instante 22:00:00 hrs:
  ----------------------------------------------
                     Caudal Velocidad  Pérdidas
  Línea                 L/s       m/s    /1000m
  ----------------------------------------------
  1                   82.38      1.65      8.04
  2                   28.87      0.90      3.37
  3                   40.67      0.81      2.17
  4                   10.53      0.33      0.52
  5                    8.69      0.46      1.32
  6                   -6.82      0.36      0.84
   
   
  Resultados de Nudo en el instante 23:00:00 hrs:
  ----------------------------------------------
                    Demanda    Altura   Presión
  Nudo                  L/s         m         m
  ----------------------------------------------
  B                   10.65   1234.00     24.00
  C                   20.85   1229.23     39.23
  D                   20.85   1230.92     35.92
  E                   15.94   1228.12     23.12
  A                  -68.29   1245.36      5.36  Depósito
   
   
  Resultados de Línea en el instante 23:00:00 hrs:
  ----------------------------------------------
                     Caudal Velocidad  Pérdidas
  Línea                 L/s       m/s    /1000m
  ----------------------------------------------
  1                   68.29      1.37      5.68
  2                   23.94      0.75      2.38
  3                   33.71      0.68      1.54
  4                    8.73      0.27      0.37
  5                    7.21      0.38      0.93
  6                   -5.65      0.30      0.59
   
   
  Resultados de Nudo en el instante 24:00:00 hrs:
  ----------------------------------------------
                    Demanda    Altura   Presión
  Nudo                  L/s         m         m
  ----------------------------------------------
  B                    8.96   1236.98     26.98
  C                   17.54   1233.52     43.52
  D                   17.54   1234.75     39.75
  E                   13.41   1232.72     27.72
  A                  -57.45   1245.23      5.23  Depósito
   
   
  Resultados de Línea en el instante 24:00:00 hrs:
  ----------------------------------------------
                     Caudal Velocidad  Pérdidas
  Línea                 L/s       m/s    /1000m
  ----------------------------------------------
  1                   57.45      1.15      4.12
  2                   20.14      0.63      1.73
  3                   28.36      0.57      1.12
  4                    7.35      0.23      0.27
  5                    6.06      0.32      0.68
  6                   -4.75      0.25      0.43
   
  El análisis finalizó en Miercoles, 12 de Febrero de 2025 14:44